*Heading
** Job name: Job-case1 Model name: symulacja_kadz
** Generated by: Abaqus/CAE 2019
*Preprint, echo=NO, model=NO, history=NO, contact=NO
**
** PARTS
**
*Part, name=izolacja
*Node
      1,   182.625885,   440.990814
      2,   182.118835,   430.981598
      3,   181.611786,   420.972412
      4,   181.104752,   410.963226
      5,   180.597702,    400.95401
      6,   180.090668,   390.944824
      7,   179.583618,   380.935638
      8,   178.823044,   365.921844
      9,    178.31601,   355.912659
     10,    177.80896,   345.903442
     11,   177.301926,   335.894257
     12,   176.794876,   325.885071
     13,   176.287827,   315.875854
     14,   175.780792,   305.866669
     15,   175.273743,   295.857483
     16,   174.766693,   285.848267
     17,   174.259659,   275.839081
     18,   173.752609,   265.829895
     19,    173.24556,   255.820694
     20,   172.738525,   245.811493
** ... 774 like lines cut
*Element, type=DC2D3
   1, 787, 677, 517
   2, 677, 237, 517
   3, 701, 236, 516
   4, 702, 235, 515
   5, 703, 234, 514
   6, 704, 233, 513
   7, 705, 272,   6
   8, 706, 511, 697
   9, 712, 696, 274
  10, 728, 689, 276
  11, 594, 277, 239
  12, 789, 278, 240
  13, 791, 241, 226
  14, 790, 504, 241
  15, 707, 503, 242
  16, 727, 678, 502
  17, 726, 595, 501
  18, 725, 679, 500
  19, 713, 680, 499
  20, 609, 608, 287
** ... 1076 like lines cut
*Nset, nset=Set-1, generate
   1,  794,    1
*Elset, elset=Set-1, generate
    1,  1096,     1
*Nset, nset=Set-2, generate
   1,  794,    1
*Elset, elset=Set-2, generate
    1,  1096,     1
*Elset, elset=_izolacja_wew_S2, internal
    7,   21,   29,   30,   31,   32,   33,   40,   41,   42,   43,   48,   50,  122,  129,  136
  143,  150,  158,  173,  194,  198,  200,  205,  216,  218,  221,  222,  223,  228,  247,  249
  253,  255,  256,  257,  262,  264,  267,  268,  269,  271,  281,  327,  365,  366,  367,  380
  390,  391,  392,  394,  399,  400,  406,  414,  415,  416,  417,  418,  544,  549,  551,  554
  555,  557,  561,  596,  613,  641,  643,  649,  696,  697,  699,  702,  704,  705,  707,  710
  711,  714,  716,  718,  722,  724,  727,  730,  731,  733,  736,  738,  739,  741,  742,  745
  747,  749,  752,  754,  756,  758,  760,  762,  763,  765,  786,  788,  790,  792,  794,  796
  798,  800,  802,  806,  807,  810,  812,  816,  818,  820,  823,  827,  830,  832,  842,  844
  846,  848,  850,  860,  862,  863,  865,  867,  869,  877,  879,  882,  883,  886,  887,  898
  900,  902,  904,  906,  908,  910,  912,  914,  916,  919,  921,  924,  931,  934,  936,  937
  956,  958,  960,  962,  965,  968,  969,  971,  973,  983,  985,  987,  990,  991,  993,  995
  997,  999, 1001, 1003, 1005, 1007, 1009, 1011, 1013, 1015, 1017, 1019, 1021, 1023, 1025, 1027
 1029, 1031, 1033, 1035, 1037, 1039, 1045, 1047, 1049, 1051, 1053, 1059, 1063, 1065, 1067, 1073
 1076, 1077, 1079, 1092, 1094, 1095
*Elset, elset=_izolacja_wew_S1, internal
  59,  66,  73,  80,  87, 344, 345, 346, 347, 381, 382, 383, 384, 385, 398, 408
 409, 410, 411, 412
*Elset, elset=_izolacja_wew_S3, internal, generate
 232,  244,    4
*Surface, type=ELEMENT, name=izolacja_wew
_izolacja_wew_S2, S2
_izolacja_wew_S1, S1
_izolacja_wew_S3, S3
*Elset, elset=_izolacja_zew_S2, internal
    2,    3,    4,    5,    6,   25,   37,   38,   52,   54,   61,   64,   68,   71,   75,   78
   82,   85,   89,   92,   95,   98,  107,  110,  113,  116,  120,  123,  127,  130,  134,  137
  155,  159,  160,  161,  162,  165,  176,  177,  187,  191,  209,  234,  238,  243,  279,  290
  293,  297,  299,  301,  303,  305,  306,  307,  308,  317,  330,  331,  335,  336,  362,  420
  421,  422,  423,  424,  425,  426,  433,  434,  435,  436,  437,  438,  439,  440,  441,  442
  443,  444,  445,  446,  447,  448,  449,  453,  454,  455,  456,  457,  458,  459,  460,  461
  462,  463,  464,  467,  470,  472,  476,  482,  499,  501,  502,  503,  504,  505,  506,  507
  508,  509,  515,  520,  521,  522,  523,  524,  525,  526,  527,  528,  532,  534,  535,  536
  537,  538,  539,  540,  541,  542,  566,  568,  570,  572,  574,  576,  578,  580,  581,  585
  605,  612,  614,  616,  618,  620,  622,  624,  626,  628,  630,  632,  635,  639,  640,  642
  644,  646,  648,  664,  665,  667,  669,  672,  687,  691,  695,  698,  700,  701,  706,  708
  712,  725,  728,  732,  734,  735,  737,  740,  744,  746,  748,  750,  753,  755,  757,  804
  808,  824,  826,  828,  836,  838,  854,  856,  858,  864,  866,  868,  870,  871,  874,  875
  878,  880,  881,  884,  888,  917,  920,  922,  923,  926,  928,  930,  932,  938,  974, 1085
*Elset, elset=_izolacja_zew_S3, internal
 229, 233, 241, 328
*Elset, elset=_izolacja_zew_S1, internal
 282, 285, 288, 291, 294, 421, 427, 428, 429, 430, 431, 432, 452, 499, 510, 511
 529, 530, 531, 543
*Surface, type=ELEMENT, name=izolacja_zew
_izolacja_zew_S2, S2
_izolacja_zew_S3, S3
_izolacja_zew_S1, S1
*Elset, elset=_izolacja_otoczenie_S2, internal
  386,  543, 1057, 1081
*Surface, type=ELEMENT, name=izolacja_otoczenie
_izolacja_otoczenie_S2, S2
** Section: warstwa_ochronna
*Solid Section, elset=Set-2, material=warstwa_ochronna
,
*End Part
**  
*Part, name=pancerz
*Node
      1,   10.0647058,           0.
      2,   20.1294117,           0.
      3,   30.1941185,           0.
      4,   45.2911758,           0.
      5,   55.3558807,           0.
      6,   65.4205856,           0.
      7,   75.4852905,           0.
      8,   85.5500031,           0.
      9,   95.6147079,           0.
     10,   105.679413,           0.
     11,   115.744118,           0.
     12,   130.841171,           0.
     13,   140.905884,           0.
     14,   150.970581,           0.
     15,   161.035294,           0.
     16,           0.,           0.
     17,   171.100006,           0.
     18,   171.607697,   10.0222225
     19,   172.115402,    20.044445
     20,   172.623108,   30.0666676
** ... 478 like lines cut
*Element, type=DC2D3
  1, 351, 256, 104
  2,  17, 257, 104
  3, 350,  18, 103
  4, 103,  18, 258
  5, 102,  19, 259
  6, 101,  20, 260
  7, 345,  22, 262
  8, 344,  23, 263
  9, 264, 343,  24
 10, 263,  98, 344
 11, 345, 262,  99
 12, 352, 255, 105
 13,  15, 256, 351
 14, 353, 254, 106
 15,  14, 255, 352
 16, 354, 253, 107
 17,  13, 254, 353
 18, 251, 108, 356
 19,  12, 253, 354
 20, 250, 109, 357
** ... 476 like lines cut
*Nset, nset=Set-1, generate
   1,  498,    1
*Elset, elset=Set-1, generate
   1,  496,    1
*Elset, elset=_pancerz_zew_S1, internal
   2,  13,  15,  17,  19,  40,  41,  42,  52,  87,  88,  89, 108, 109, 162, 163
 164, 165, 166, 167, 172, 192, 193, 194, 195, 196, 201, 202, 216, 223, 224, 225
 231, 242, 243, 244, 245, 246, 247, 248, 249, 250, 251, 252, 253, 254, 256, 257
 258, 259, 264, 265, 266, 267, 268, 269, 270, 272, 273, 274, 275, 276, 277, 278
 286, 287, 288, 289, 290, 291, 292, 296, 297, 298, 299, 300, 301, 302, 303, 304
 433, 434, 435, 436, 437, 438, 439, 440, 441, 442, 443, 444, 445, 446, 447, 448
 449, 450, 451, 452, 453, 454, 455, 456, 457, 458, 459, 460, 461, 462, 463, 464
 465, 466, 467, 468, 469, 470, 471, 472, 473, 474, 475, 476, 477, 478, 479, 480
 481, 482, 483, 484, 485, 486, 487, 488, 489, 490, 491, 492, 493, 494, 495, 496
*Elset, elset=_pancerz_zew_S2, internal
   4,   5,   6,   7,   8,  21,  23,  25,  27,  43,  44,  45,  46,  48,  49,  54
  68,  71,  72,  73,  90,  91,  92,  98,  99, 104, 106, 107, 138, 142, 156, 173
 175, 176, 189, 190, 191, 255, 260, 261, 262, 263, 271, 285, 304, 387
*Elset, elset=_pancerz_zew_S3, internal
   9,  38,  39,  47,  50,  57,  75,  76,  77,  78,  79,  80,  82,  93,  94,  95
  96,  97, 101, 110, 111, 112, 113, 134, 136, 137, 139, 140, 144, 147, 157, 160
 177, 308, 314, 315, 316, 322, 369, 370, 371, 372, 377, 378, 379, 380, 381, 384
 385, 386, 387, 397, 398, 416, 417, 418, 419, 420, 421, 422
*Surface, type=ELEMENT, name=pancerz_zew
_pancerz_zew_S1, S1
_pancerz_zew_S2, S2
_pancerz_zew_S3, S3
*Elset, elset=_pancerz_wew_S3, internal
   1,   3,  11,  12,  14,  16,  26,  28,  31,  32,  33,  34,  35,  51,  53,  55
  56,  58,  59,  60,  61,  62,  63,  69,  70,  74,  81, 100, 114, 158, 159, 200
 215, 217, 218, 219, 230, 237, 238, 240, 241, 279, 280, 281, 282, 283, 284, 293
*Elset, elset=_pancerz_wew_S2, internal
  10,  18,  20,  22,  24,  83,  84,  85, 105, 118, 119, 120, 121, 122, 123, 124
 125, 126, 127, 128, 129, 130, 131, 132, 135, 141, 145, 146, 148, 149, 150, 151
 152, 153, 154, 155, 161, 168, 169, 170, 171, 174, 178, 179, 180, 181, 182, 183
 184, 185, 186, 187, 199, 203, 204, 205, 206, 207, 364, 365, 366, 367, 373, 374
 375, 376, 382, 383, 391, 392, 393, 394, 395, 396, 400, 401, 402, 403, 404, 405
 406, 415, 424, 425, 426, 427, 428
*Elset, elset=_pancerz_wew_S1, internal
  29,  30,  36,  37,  64,  65,  66,  67,  86, 102, 103, 115, 116, 117, 133, 143
 188, 197, 198, 208, 209, 210, 211, 212, 213, 214, 220, 221, 222, 226, 227, 228
 229, 232, 233, 234, 235, 236, 239, 294, 295, 305, 306, 307, 309, 310, 311, 312
 313, 317, 318, 319, 320, 321, 323, 324, 325, 326, 327, 328, 329, 330, 331, 332
 333, 334, 335, 336, 337, 338, 339, 340, 341, 342, 343, 344, 345, 346, 347, 348
 349, 350, 351, 352, 353, 354, 355, 356, 357, 358, 359, 360, 361, 362, 363, 368
 388, 389, 390, 399, 407, 408, 409, 410, 411, 412, 413, 414, 423, 429, 430, 431
 432,
*Surface, type=ELEMENT, name=pancerz_wew
_pancerz_wew_S3, S3
_pancerz_wew_S2, S2
_pancerz_wew_S1, S1
** Section: powloka_stalowa
*Solid Section, elset=Set-1, material=powloka_stalowa
,
*End Part
**  
*Part, name=stal
*Node
      1,   142.823883,   50.5999985
      2,   143.077179,   55.5999985
      3,   143.330475,   60.5999985
      4,   143.583755,   65.5999985
      5,   143.837051,   70.5999985
      6,   144.090332,   75.5999985
      7,   144.343628,   80.5999985
      8,   144.596909,   85.5999985
      9,   144.850204,   90.5999985
     10,   145.103485,   95.5999985
     11,   145.356781,   100.599998
     12,   145.610077,   105.599998
     13,   145.863358,   110.599998
     14,   146.116653,   115.599998
     15,   146.369934,   120.599998
     16,    146.62323,   125.599998
     17,   146.876511,   130.600006
     18,   147.129807,   135.600006
     19,   147.383087,   140.600006
     20,   147.636383,   145.600006
** ... 3700 like lines cut
*Element, type=DC2D3
   1,    1,    2,   62
   2,   62,   61,    1
   3,    2,    3,   63
   4,   63,   62,    2
   5,    3,    4,   64
   6,   64,   63,    3
   7,    4,    5,   65
   8,   65,   64,    4
   9,    5,    6,   66
  10,   66,   65,    5
  11,    6,    7,   67
  12,   67,   66,    6
  13,    7,    8,   68
  14,   68,   67,    7
  15,    8,    9,   69
  16,   69,   68,    8
  17,    9,   10,   70
  18,   70,   69,    9
  19,   10,   11,   71
  20,   71,   70,   10
** ... 7178 like lines cut
*Nset, nset=Set-1, generate
    1,  3720,     1
*Elset, elset=Set-1, generate
    1,  7198,     1
*Elset, elset=_stal_wymurowka_S2, internal, generate
    2,  7082,   118
*Elset, elset=_stal_wymurowka_S1, internal
    1,    3,    5,    7,    9,   11,   13,   15,   17,   19,   21,   23,   25,   27,   29,   31
   33,   35,   37,   39,   41,   43,   45,   47,   49,   51,   53,   55,   57,   59,   61,   63
   65,   67,   69,   71,   73,   75,   77,   79,   81,   83,   85,   87,   89,   91,   93,   95
   97,   99,  101,  103,  105,  107,  109,  111,  113,  115,  117, 7082, 7084, 7086, 7088, 7090
 7092, 7094, 7096, 7098, 7100, 7102, 7104, 7106, 7108, 7110, 7112, 7114, 7116, 7118, 7120, 7122
 7124, 7126, 7128, 7130, 7132, 7134, 7136, 7138, 7140, 7142, 7144, 7146, 7148, 7150, 7152, 7154
 7156, 7158, 7160, 7162, 7164, 7166, 7168, 7170, 7172, 7174, 7176, 7178, 7180, 7182, 7184, 7186
 7188, 7190, 7192, 7194, 7196, 7198
*Surface, type=ELEMENT, name=stal_wymurowka
_stal_wymurowka_S2, S2
_stal_wymurowka_S1, S1
*Elset, elset=_stal_zuzel_S2, internal, generate
  117,  7197,   118
*Surface, type=ELEMENT, name=stal_zuzel
_stal_zuzel_S2, S2
** Section: kapeil_metalowa
*Solid Section, elset=Set-1, material=kapiel_metalowa
,
*End Part
**  
*Part, name=wymurowka
*Node
      1,   10.0672817,   15.6000004
      2,   25.1682053,   15.6000004
      3,   35.2354851,   15.6000004
      4,   45.3027687,   15.6000004
      5,   55.3700523,   15.6000004
      6,   70.4709702,   15.6000004
      7,   80.5382538,   15.6000004
      8,   90.6055374,   15.6000004
      9,   105.706459,   15.6000004
     10,   115.773743,   15.6000004
     11,   125.841026,   15.6000004
     12,    135.90831,   15.6000004
     13,   151.009232,   15.6000004
     14,           0.,   15.6000004
     15,   161.076508,   15.6000004
     16,   161.583084,   25.6000004
     17,   162.089661,   35.5999985
     18,   162.596252,   45.5999985
     19,   163.102829,   55.5999985
     20,   163.609406,   65.5999985
** ... 1417 like lines cut
*Element, type=DC2D3
   1,  104,  535,  289
   2, 1342, 1227, 1282
   3, 1398,  258, 1387
   4,  922,    8,  430
   5,  949,  922,  430
   6,  950,  226,  949
   7,  923,    9,  432
   8, 1080,  928,  224
   9, 1253, 1175, 1216
  10, 1149,  285,  990
  11,  529,  284,   99
  12,  689,  100,  285
  13,  100,  530,  285
  14,  690,  285,  530
  15, 1314, 1247,  255
  16, 1143,  226, 1087
  17, 1247, 1143, 1204
  18, 1175,  225, 1080
  19, 1134,  695,  996
  20, 1376, 1282, 1347
** ... 2388 like lines cut
*Nset, nset=Set-1, generate
    1,  1437,     1
*Elset, elset=Set-1, generate
    1,  2408,     1
*Elset, elset=_wymurowka_zew_S2, internal
    4,    7,   21,   24,   41,   47,   53,   59,   82,   97,  115,  129,  132,  155,  156,  157
  244,  251,  257,  263,  272,  278,  326,  349,  362,  364,  376,  378,  380,  399,  402,  413
  427,  442,  453,  456,  461,  470,  471,  479,  482,  484,  492,  493,  502,  503,  504,  506
  507,  508,  511,  520,  522,  529,  569,  571,  573,  575,  577,  579,  581,  583,  585,  587
  589,  649,  656,  657,  658,  659,  666,  667,  669,  687,  688,  698,  699,  700,  701,  702
  703,  803,  805,  810,  820,  821,  822,  823,  824,  826,  836,  843,  844,  846,  847,  848
  849,  854,  858, 1080, 1087, 1088, 1089, 1091, 1093, 1101, 1103, 1105, 1108, 1109, 1112, 1114
 1121, 1128, 1132, 1133, 1136, 1137, 1139, 1141, 1143, 1152, 1154, 1155, 1158, 1161, 1164, 1166
 1169, 1172, 1173, 1174, 1175, 1176, 1182, 1184, 1189, 1193, 1196, 1200, 1204, 1210, 1212, 1215
 1217, 1219, 1228, 1239, 1241, 1243, 1245, 1254, 1255, 1266, 1267, 1271, 1277, 1285, 1293, 1297
 1351, 1355, 1358, 1363, 1367, 1379, 1386, 1388, 1389, 1391, 1393, 1396, 1400, 1401, 1403, 1405
 1411, 1413, 1415, 1421, 1423, 1431, 1441, 1456, 1458, 1470, 1613, 1869, 1873, 2036, 2090, 2189
 2210, 2320
*Elset, elset=_wymurowka_zew_S1, internal
 363, 379, 483, 486, 487, 666, 671, 672, 673, 674, 675, 676, 677, 678, 689, 690
 691, 704, 805, 809, 828, 829, 830, 831, 832, 833, 834, 835
*Elset, elset=_wymurowka_zew_S3, internal
 158, 159, 160, 161, 162, 163, 164, 165, 172, 360, 361, 377, 403, 412, 417, 422
*Surface, type=ELEMENT, name=wymurowka_zew
_wymurowka_zew_S2, S2
_wymurowka_zew_S1, S1
_wymurowka_zew_S3, S3
*Elset, elset=_wymurowka_stal_S2, internal
   52,   58,   68,   69,   70,   71,   74,   76,  108,  109,  110,  209,  210,  211,  212,  223
  224,  225,  226,  227,  241,  253,  259,  265,  280,  285,  295,  305,  310,  315,  332,  334
  342,  345,  353,  383,  396,  400,  410,  415,  420,  425,  430,  491,  590,  592,  593,  595
  597,  599,  601,  603,  605,  607,  719,  720,  721,  722,  723,  724,  725,  726,  734,  735
  736,  741,  742,  743,  748,  749,  750,  751,  752,  774,  775,  776,  781,  782,  787,  788
  789,  790,  792,  793,  794,  795,  873,  915,  919,  935,  938,  939,  941,  943,  947,  950
  963,  966,  985,  987, 1003, 1005, 1014, 1016, 1018, 1020, 1022, 1031, 1043, 1047, 1051, 1057
 1059, 1611, 1620, 1867, 1868, 2033, 2057
*Elset, elset=_wymurowka_stal_S1, internal
   1,  13,  35, 202, 203, 213, 218, 222, 234, 240, 294, 368, 389, 414, 419, 424
 429, 628, 714, 715, 716, 727, 728, 729, 730, 731, 732, 733, 744, 745, 753, 754
 755, 756, 757, 758, 759, 760, 761, 762, 763, 764, 765, 766, 767, 768, 784, 785
 786, 791
*Elset, elset=_wymurowka_stal_S3, internal
  11,  33,  51,  57, 352, 366, 373
*Surface, type=ELEMENT, name=wymurowka_stal
_wymurowka_stal_S2, S2
_wymurowka_stal_S1, S1
_wymurowka_stal_S3, S3
*Elset, elset=_wymurowka_zuzel_S2, internal
 188, 435, 609
*Elset, elset=_wymurowka_zuzel_S1, internal
 434, 439, 713
*Surface, type=ELEMENT, name=wymurowka_zuzel
_wymurowka_zuzel_S2, S2
_wymurowka_zuzel_S1, S1
*Elset, elset=_wymorowka_otoczenie_S2, internal
  144,  145,  150,  184,  186,  187,  440,  445,  450,  618,  619,  704,  705,  706,  708,  710
  711,  712,  797,  798, 1098, 1099, 1260, 1300, 1302, 1303, 1304, 1305, 1309, 1311, 1313, 1317
 1318, 1323, 1325, 1331, 1335, 1341
*Elset, elset=_wymorowka_otoczenie_S1, internal
 706, 709, 797, 801, 802, 803
*Surface, type=ELEMENT, name=wymorowka_otoczenie
_wymorowka_otoczenie_S2, S2
_wymorowka_otoczenie_S1, S1
** Section: warstwa_robocza
*Solid Section, elset=Set-1, material=warstwa_robocza
,
*End Part
**  
*Part, name=zuzel
*Node
      1,   157.767944,   345.600006
      2,     157.9207,   346.600006
      3,   158.073456,   347.600006
      4,   158.226212,   348.600006
      5,   158.378967,   349.600006
      6,   158.531723,   350.600006
      7,   156.769409,   345.600006
      8,    156.92247,   346.600006
      9,   157.075531,   347.600006
     10,   157.228577,   348.600006
     11,   157.381638,   349.600006
     12,   157.534683,   350.600006
     13,   155.770889,   345.600006
     14,    155.92424,   346.600006
     15,   156.077591,   347.600006
     16,   156.230942,   348.600006
     17,   156.384308,   349.600006
     18,   156.537659,   350.600006
     19,   154.772354,   345.600006
     20,    154.92601,   346.600006
** ... 1888 like lines cut
*Element, type=DC2D3
   1,    1,    2,    8
   2,    8,    7,    1
   3,    2,    3,    9
   4,    9,    8,    2
   5,    3,    4,   10
   6,   10,    9,    3
   7,    4,    5,   11
   8,   11,   10,    4
   9,    5,    6,   12
  10,   12,   11,    5
  11,    7,    8,   14
  12,   14,   13,    7
  13,    8,    9,   15
  14,   15,   14,    8
  15,    9,   10,   16
  16,   16,   15,    9
  17,   10,   11,   17
  18,   17,   16,   10
  19,   11,   12,   18
  20,   18,   17,   11
** ... 3150 like lines cut
*Nset, nset=Set-1, generate
    1,  1908,     1
*Elset, elset=Set-1, generate
    1,  3170,     1
*Elset, elset=_zuzel_toczenie_S2, internal, generate
    9,  3169,    10
*Surface, type=ELEMENT, name=zuzel_toczenie
_zuzel_toczenie_S2, S2
*Elset, elset=_zuzel_wymorowka_S1, internal
    1,    3,    5,    7,    9, 3162, 3164, 3166, 3168, 3170
*Surface, type=ELEMENT, name=zuzel_wymorowka
_zuzel_wymorowka_S1, S1
*Elset, elset=_zuzel_stal_S2, internal, generate
    2,  3162,    10
*Surface, type=ELEMENT, name=zuzel_stal
_zuzel_stal_S2, S2
** Section: zuzel
*Solid Section, elset=Set-1, material=zuzel
,
*End Part
**  
**
** ASSEMBLY
**
*Assembly, name=Assembly
**  
*Instance, name=izolacja-1, part=izolacja
*End Instance
**  
*Instance, name=pancerz-1, part=pancerz
*End Instance
**  
*Instance, name=stal-1, part=stal
*End Instance
**  
*Instance, name=wymurowka-1, part=wymurowka
*End Instance
**  
*Instance, name=zuzel-1, part=zuzel
*End Instance
**  
*Nset, nset=Set-1, instance=stal-1, generate
    1,  3720,     1
*Nset, nset=Set-1, instance=zuzel-1, generate
    1,  1908,     1
*Elset, elset=Set-1, instance=stal-1, generate
    1,  7198,     1
*Elset, elset=Set-1, instance=zuzel-1, generate
    1,  3170,     1
*Nset, nset=Set-2, instance=izolacja-1, generate
   1,  794,    1
*Nset, nset=Set-2, instance=pancerz-1, generate
   1,  498,    1
*Nset, nset=Set-2, instance=wymurowka-1, generate
    1,  1437,     1
*Elset, elset=Set-2, instance=izolacja-1, generate
    1,  1096,     1
*Elset, elset=Set-2, instance=pancerz-1, generate
   1,  496,    1
*Elset, elset=Set-2, instance=wymurowka-1, generate
    1,  2408,     1
*Nset, nset=Set-3, instance=izolacja-1, generate
   1,  794,    1
*Nset, nset=Set-3, instance=pancerz-1, generate
   1,  498,    1
*Nset, nset=Set-3, instance=wymurowka-1, generate
    1,  1437,     1
*Nset, nset=Set-3, instance=stal-1, generate
    1,  3720,     1
*Nset, nset=Set-3, instance=zuzel-1, generate
    1,  1908,     1
*Elset, elset=Set-3, instance=izolacja-1, generate
    1,  1096,     1
*Elset, elset=Set-3, instance=pancerz-1, generate
   1,  496,    1
*Elset, elset=Set-3, instance=wymurowka-1, generate
    1,  2408,     1
*Elset, elset=Set-3, instance=stal-1, generate
    1,  7198,     1
*Elset, elset=Set-3, instance=zuzel-1, generate
    1,  3170,     1
*Nset, nset=Set-5, instance=zuzel-1
 949,
*Nset, nset=Set-23, instance=stal-1, generate
    1,  3720,     1
*Elset, elset=Set-23, instance=stal-1, generate
    1,  7198,     1
*Nset, nset=_PickedSet75, internal, instance=wymurowka-1, generate
    1,  1437,     1
*Elset, elset=_PickedSet75, internal, instance=wymurowka-1, generate
    1,  2408,     1
*Nset, nset=_PickedSet76, internal, instance=izolacja-1, generate
   1,  794,    1
*Nset, nset=_PickedSet76, internal, instance=pancerz-1, generate
   1,  498,    1
*Elset, elset=_PickedSet76, internal, instance=izolacja-1, generate
    1,  1096,     1
*Elset, elset=_PickedSet76, internal, instance=pancerz-1, generate
   1,  496,    1
*Elset, elset=__PickedSurf73_S1, internal, instance=pancerz-1
   2,  40,  41,  42,  52,  87,  88,  89, 162, 163, 164, 165, 166, 167, 172, 192
 193, 194, 195, 196, 201, 202, 216, 223, 224, 225, 231, 233, 234, 235, 236, 239
 264, 265, 266, 267, 268, 269, 270, 272, 273, 274, 275, 276, 277, 278, 286, 287
 288, 289, 290, 291, 292, 296, 297, 298, 299, 300, 301, 302, 303, 304, 351, 352
 353, 354, 355, 356, 357, 358, 359, 360, 361, 362, 363, 368, 433, 434, 435, 436
 437, 438, 439, 440, 441, 442, 443, 444, 445, 446, 447, 448, 449, 450, 451, 452
 453, 454, 455, 456, 457, 458, 459, 460, 461, 462, 463, 464, 465, 466, 467, 468
 469, 470, 471, 472, 473, 474, 475, 476, 477, 478, 479, 480, 481, 482, 483, 484
 485, 486, 487, 488, 489, 490, 491, 492, 493, 494, 495, 496
*Elset, elset=__PickedSurf73_S2, internal, instance=pancerz-1
   4,   5,   6,   7,   8,  18,  20,  22,  24,  27,  43,  44,  45,  46,  48,  49
  54,  68,  71,  72,  73,  90,  91,  92,  98,  99, 105, 138, 142, 156, 173, 175
 176, 189, 190, 191, 260, 261, 262, 263, 271, 285, 364, 365, 366, 367
*Elset, elset=__PickedSurf73_S3, internal, instance=pancerz-1
   1,   9,  12,  14,  16,  38,  39,  47,  50,  57,  75,  76,  77,  78,  79,  80
  82,  93,  94,  95,  96,  97, 101, 134, 136, 137, 139, 140, 144, 147, 157, 160
 177, 237, 238, 308, 314, 315, 316, 322, 369, 370, 371, 372, 377, 378, 379, 380
 381, 384, 385, 386, 387, 397, 398, 416, 417, 418, 419, 420, 421, 422
*Surface, type=ELEMENT, name=_PickedSurf73, internal
__PickedSurf73_S1, S1
__PickedSurf73_S2, S2
__PickedSurf73_S3, S3
*Elset, elset=__PickedSurf74_S2, internal, instance=zuzel-1, generate
    9,  3169,    10
*Surface, type=ELEMENT, name=_PickedSurf74, internal
__PickedSurf74_S2, S2
** Constraint: Constraint-1
*Tie, name=Constraint-1, adjust=no, position tolerance=1.
wymurowka-1.wymurowka_zew, izolacja-1.izolacja_wew
** Constraint: Constraint-2
*Tie, name=Constraint-2, adjust=no, position tolerance=1.
zuzel-1.zuzel_wymorowka, wymurowka-1.wymurowka_zuzel
** Constraint: Constraint-3
*Tie, name=Constraint-3, adjust=no, position tolerance=1.
zuzel-1.zuzel_stal, stal-1.stal_zuzel
** Constraint: Constraint-4
*Tie, name=Constraint-4, adjust=no, position tolerance=100., type=SURFACE TO SURFACE
wymurowka-1.wymurowka_stal, stal-1.stal_wymurowka
** Constraint: Constraint-5
*Tie, name=Constraint-5, adjust=no, position tolerance=1.
pancerz-1.pancerz_wew, izolacja-1.izolacja_zew
*End Assembly
** 
** MATERIALS
** 
*Material, name=kapiel_metalowa
*Conductivity
 0.41,
*Density
 0.0071,
*Specific Heat
750.,
*Material, name=powloka_stalowa
*Conductivity
 0.52,
*Density
 0.00803,
*Specific Heat
787.,
*Material, name=warstwa_ochronna
*Conductivity
 0.0095,
*Density
 0.00275,
*Specific Heat
1056.,
*Material, name=warstwa_robocza
*Conductivity
 0.0364,
*Density
 0.003,
*Specific Heat
1039.,
*Material, name=zuzel
*Conductivity
 0.0121,
*Density
 0.003807,
*Specific Heat
838.,
** 
** INTERACTION PROPERTIES
** 
*Surface Interaction, name=IntProp-1
1.,
*Gap Conductance
 0.4,    0.
  0., 0.005
** 
** PHYSICAL CONSTANTS
** 
*Physical Constants, absolute zero=-273.15, stefan boltzmann=5.669e-12
** 
** PREDEFINED FIELDS
** 
** Name: outer_core   Type: Temperature
*Initial Conditions, type=TEMPERATURE
_PickedSet76, 700.
** Name: temp_kadz   Type: Temperature
*Initial Conditions, type=TEMPERATURE
_PickedSet75, 1400.
** Name: temp_stal_zuzel   Type: Temperature
*Initial Conditions, type=TEMPERATURE
Set-1, 1587.
** ----------------------------------------------------------------
** 
** STEP: Step-1
** 
*Step, name=Step-1, nlgeom=NO, inc=50000
*Heat Transfer, end=PERIOD, deltmx=100.
0.1, 1836., 1e-06, 1., 
** 
** INTERACTIONS
** 
** Interaction: izolacja_otoczenie
*Sfilm
izolacja-1.izolacja_otoczenie, F, 45., 0.0012
** Interaction: pancerz_otoczenie
*Sfilm
pancerz-1.pancerz_zew, F, 45., 0.0012
** Interaction: radiation-obudowa
*Sradiate
_PickedSurf73, R, 45., 0.5
** Interaction: radiation-zuzel
*Sradiate
_PickedSurf74, R, 45., 0.8
** Interaction: wymurowka_otoczenie
*Sfilm
wymurowka-1.wymorowka_otoczenie, F, 45., 0.0012
** Interaction: zuzel_otoczenie
*Sfilm
zuzel-1.zuzel_toczenie, F, 45., 0.0012
** 
** OUTPUT REQUESTS
** 
*Restart, write, frequency=0
*Monitor, dof=11, node=Set-5, frequency=1
** 
** FIELD OUTPUT: F-Output-1
** 
*Output, field
*Node Output
NT, RFL
*Element Output, directions=YES
HFL, TEMP
** 
** HISTORY OUTPUT: H-Output-1
** 
*Output, history
*Node Output, nset=Set-1
NT, 
*End Step
